*HEADING
cubit(lities/Mesh_conversion/v1.3_deal_II/mesh/2d/test_pave.inp): 07/09/2015: 17
version: 13.2
**
********************************** P A R T S **********************************
*PART, NAME=Part-Default
**
********************************** N O D E S **********************************
*NODE, NSET=ALLNODES
       1,   -1.000000e+00,    1.224647e-16,    0.000000e+00
       2,   -7.071068e-01,    7.071068e-01,    0.000000e+00
       3,   -1.248967e+00,    9.720957e-01,    0.000000e+00
       4,   -1.714319e+00,    2.838404e-01,    0.000000e+00
       5,    6.123234e-17,    1.000000e+00,    0.000000e+00
       6,   -6.148036e-01,    1.505307e+00,    0.000000e+00
       7,    6.635957e-01,    1.579027e+00,    0.000000e+00
       8,    5.671687e-02,    2.116324e+00,    0.000000e+00
       9,    7.071068e-01,    7.071068e-01,    0.000000e+00
      10,    1.183809e+00,    1.044147e+00,    0.000000e+00
      11,    1.000000e+00,    0.000000e+00,    0.000000e+00
      12,    1.571332e+00,    4.888103e-01,    0.000000e+00
      13,    1.782733e+00,   -6.084303e-01,    0.000000e+00
      14,    2.210493e+00,    8.406742e-02,    0.000000e+00
      15,    7.071068e-01,   -7.071068e-01,    0.000000e+00
      16,    1.251542e+00,   -1.266711e+00,    0.000000e+00
      17,    6.123234e-17,   -1.000000e+00,    0.000000e+00
      18,    5.975285e-01,   -1.845350e+00,    0.000000e+00
      19,   -6.117282e-01,   -1.735589e+00,    0.000000e+00
      20,   -1.116731e-01,   -2.367074e+00,    0.000000e+00
** ... 148 like lines cut
**
********************************** E L E M E N T S ****************************
*ELEMENT, TYPE=S4R, ELSET=EB1
       1,       1,       2,       3,       4
       2,       2,       5,       6,       3
       3,       5,       7,       8,       6
       4,       5,       9,      10,       7
       5,       9,      11,      12,      10
       6,      11,      13,      14,      12
       7,      11,      15,      16,      13
       8,      15,      17,      18,      16
       9,      17,      19,      20,      18
      10,      17,      21,      22,      19
      11,      21,       1,      23,      22
      12,       1,       4,      24,      23
      13,       4,      25,      26,      24
      14,       4,       3,      27,      25
      15,       3,       6,      28,      27
      16,       6,       8,      29,      28
      17,       8,      30,      31,      29
      18,       8,       7,      32,      30
      19,       7,      10,      33,      32
      20,      10,      12,      34,      33
** ... 113 like lines cut
*ELEMENT, TYPE=S4R, ELSET=EB2
     134,       1,      21,     160,     161
     135,      21,      17,     162,     160
     136,      17,      15,     163,     162
     137,      15,      11,     164,     163
     138,      11,       9,     165,     164
     139,       9,       5,     166,     165
     140,       5,       2,     167,     166
     141,       2,       1,     161,     167
     142,     166,     167,     168,     165
     143,     167,     161,     160,     168
     144,     165,     168,     163,     164
     145,     168,     160,     162,     163
**
********************************** S I D E S E T S **********************************
*ELSET, ELSET=SS1_E1
      30,      31,      32,      33,      34,      35,      36,      37,      38,      39,
      40
*SURFACE, NAME=SS1
SS1_E1, E1
*ELSET, ELSET=SS2_E1
      41,      42,      43,      44,      45,      46,      47,      48,      49,      50,
      51
*SURFACE, NAME=SS2
SS2_E1, E1
**
********************************** P R O P E R T I E S ************************
*SHELL SECTION, ELSET=EB1, SECTION INTEGRATION=SIMPSON, MATERIAL=Default-Steel
1.000000e+00
*SHELL SECTION, ELSET=EB2, SECTION INTEGRATION=SIMPSON, MATERIAL=Default-Steel
1.000000e+00
**
*END PART
**
**
**
********************************** E N D   P A R T S **********************************
**
**
********************************** A S S E M B L Y ************************************
**
*ASSEMBLY, NAME=ASSEMBLY1
**
*INSTANCE, NAME=Part-Default_1, PART=Part-Default
*END INSTANCE
**
*END ASSEMBLY
**
**
**
*MATERIAL, NAME = Default-Steel
*ELASTIC, TYPE=ISOTROPIC
2.068000e+05, 2.900000e-01
*DENSITY
7.000000e-06
*CONDUCTIVITY,TYPE=ISO
4.500000e-02
*SPECIFIC HEAT
5.000000e+02
**
**
************************************** H I S T O R Y *************************************
**
*PREPRINT
**
**************************************** S T E P 1 ***************************************
*STEP,INC=100,NAME=Default Set
**
*STATIC
1, 1, 1e-05, 1
**
**
**
**
*END STEP
