*HEADING
cubit(y/Mesh_conversion/Mesh_conversion_update/mesh/CC_TEMP.inp): 06/13/2010: 18
version: 12.1
**
********************************** P A R T S **********************************
*PART, NAME=Part-Default
**
********************************** N O D E S **********************************
*NODE, NSET=ALLNODES
       1,  -5.000000e-01,  -5.000000e-01,   5.000000e-01
       2,  -5.000000e-01,  -5.000000e-01,   0.000000e+00
       3,  -5.000000e-01,   0.000000e+00,   0.000000e+00
       4,  -5.000000e-01,   0.000000e+00,   5.000000e-01
       5,   0.000000e+00,  -5.000000e-01,   5.000000e-01
       6,   0.000000e+00,  -5.000000e-01,   0.000000e+00
       7,   0.000000e+00,   0.000000e+00,   0.000000e+00
       8,   0.000000e+00,   0.000000e+00,   5.000000e-01
       9,  -5.000000e-01,  -5.000000e-01,  -5.000000e-01
      10,  -5.000000e-01,   0.000000e+00,  -5.000000e-01
      11,   0.000000e+00,  -5.000000e-01,  -5.000000e-01
      12,   0.000000e+00,   0.000000e+00,  -5.000000e-01
      13,  -5.000000e-01,   5.000000e-01,   0.000000e+00
      14,  -5.000000e-01,   5.000000e-01,   5.000000e-01
      15,   0.000000e+00,   5.000000e-01,   0.000000e+00
      16,   0.000000e+00,   5.000000e-01,   5.000000e-01
      17,  -5.000000e-01,   5.000000e-01,  -5.000000e-01
      18,   0.000000e+00,   5.000000e-01,  -5.000000e-01
      19,   5.000000e-01,  -5.000000e-01,   5.000000e-01
      20,   5.000000e-01,  -5.000000e-01,   0.000000e+00
** ... 34 like lines cut
**
********************************** E L E M E N T S ****************************
*ELEMENT, TYPE=C3D8R, ELSET=EB1
       1,       1,       2,       3,       4,       5,       6,       7,       8
       2,       2,       9,      10,       3,       6,      11,      12,       7
       3,       4,       3,      13,      14,       8,       7,      15,      16
       4,       3,      10,      17,      13,       7,      12,      18,      15
       5,       5,       6,       7,       8,      19,      20,      21,      22
       6,       6,      11,      12,       7,      20,      23,      24,      21
       7,       8,       7,      15,      16,      22,      21,      25,      26
       8,       7,      12,      18,      15,      21,      24,      27,      25
*ELEMENT, TYPE=C3D8R, ELSET=EB2
       9,      28,      29,      30,      31,      32,      33,      34,      35
      10,      29,      36,      37,      30,      33,      38,      39,      34
      11,      31,      30,      40,      41,      35,      34,      42,      43
      12,      30,      37,      44,      40,      34,      39,      45,      42
      13,      32,      33,      34,      35,      46,      47,      48,      49
      14,      33,      38,      39,      34,      47,      50,      51,      48
      15,      35,      34,      42,      43,      49,      48,      52,      53
      16,      34,      39,      45,      42,      48,      51,      54,      52
**
********************************** S I D E S E T S **********************************
*ELSET, ELSET=SS1_S3
       1,       2,       5,       6
*SURFACE, NAME=SS1
SS1_S3, S3
*ELSET, ELSET=SS2_S4
      10,      12,      14,      16,       2,       4,       6,       8
*SURFACE, NAME=SS2
SS2_S4, S4
*ELSET, ELSET=SS3_S1
       9,      10,      11,      12,       1,       2,       3,       4
*SURFACE, NAME=SS3
SS3_S1, S1
*ELSET, ELSET=SS4_S5
      11,      12,      15,      16
*SURFACE, NAME=SS4
SS4_S5, S5
*ELSET, ELSET=SS100_S5
       3,       4,       7,       8
*SURFACE, NAME=SS100
SS100_S5, S5
*ELSET, ELSET=SS101_S3
       9,      10,      13,      14
*SURFACE, NAME=SS101
SS101_S3, S3
**
********************************** P R O P E R T I E S ************************
*SOLID SECTION, ELSET=EB1, MATERIAL=Default-Steel
*SOLID SECTION, ELSET=EB2, MATERIAL=Default-Steel
**
*END PART
**
**
**
********************************** E N D   P A R T S **********************************
**
**
********************************** A S S E M B L Y ************************************
**
*ASSEMBLY, NAME=ASSEMBLY1
**
*INSTANCE, NAME=Part-Default_1, PART=Part-Default
*END INSTANCE
**
*END ASSEMBLY
**
**
**
*MATERIAL, NAME = Default-Steel
*ELASTIC, TYPE=ISOTROPIC
2.068000e+05, 2.900000e-01
*DENSITY
7.000000e-06
*CONDUCTIVITY,TYPE=ISO
4.500000e-02
*SPECIFIC HEAT
5.000000e+02
**
**
************************************** H I S T O R Y *************************************
**
*PREPRINT
**
**************************************** S T E P 1 ***************************************
*STEP,INC=100,NAME=Default Set
**
*STATIC
1, 1, 1e-05, 1
**
**
**
**
*END STEP
