*HEADING
cubit(ellipsoid_cavity.inp): 07/02/2026: 16:29:53
version: 2025.3
**
********************************** P A R T S **********************************
*PART, NAME=Part-Default
**
********************************** N O D E S **********************************
*NODE, NSET=ALLNODES
       1,    5.000000e+03,   -5.048710e-29,   -6.860000e+03
       2,    0.000000e+00,   -5.710000e+03,   -6.860000e+03
       3,    4.397130e+03,   -2.718164e+03,   -6.860000e+03
       4,    2.627958e+03,   -4.857708e+03,   -6.860000e+03
       5,    5.000000e+03,   -5.048710e-29,    0.000000e+00
       6,    5.000000e+03,   -5.048710e-29,   -3.430000e+03
       7,    0.000000e+00,   -5.710000e+03,    0.000000e+00
       8,    2.627958e+03,   -4.857708e+03,    0.000000e+00
       9,    4.397130e+03,   -2.718164e+03,    0.000000e+00
      10,    0.000000e+00,   -5.710000e+03,   -3.430000e+03
      11,    2.648657e+03,   -4.843024e+03,   -3.430000e+03
      12,    4.403564e+03,   -2.704546e+03,   -3.430000e+03
      13,    0.000000e+00,    0.000000e+00,    0.000000e+00
      14,    3.333333e+03,    0.000000e+00,    0.000000e+00
      15,    1.666667e+03,    0.000000e+00,    0.000000e+00
      16,    0.000000e+00,   -1.427500e+03,    0.000000e+00
      17,    0.000000e+00,   -2.855000e+03,    0.000000e+00
      18,    0.000000e+00,   -4.282500e+03,    0.000000e+00
      19,    1.031841e+03,   -2.616991e+03,    0.000000e+00
      20,    1.686892e+03,   -3.493609e+03,    0.000000e+00
** ... 11173 like lines cut
**
********************************** E L E M E N T S ****************************
*ELEMENT, TYPE=C3D8R, ELSET=EB17
       1,    1118,    1152,    1156,    1145,     955,     970,     969,     968
       2,    1100,    1118,    1145,    1099,     937,     955,     968,     936
       3,    1177,    1176,    1178,    1179,    1021,    1013,    1014,    1015
       4,    1182,    1183,    1185,    1184,    1018,    1019,    1022,    1020
       5,    1180,    1181,    1184,    1185,    1016,    1017,    1020,    1022
       6,    1179,    1180,    1185,    1177,    1015,    1016,    1022,    1021
       7,    1175,    1177,    1185,    1183,    1012,    1021,    1022,    1019
       8,    1173,    1174,    1178,    1176,    1010,    1011,    1014,    1013
       9,    1171,    1172,    1182,    1184,    1008,    1009,    1018,    1020
      10,    1170,    1171,    1184,    1181,    1007,    1008,    1020,    1017
      11,    1168,    1169,    1175,    1183,    1005,    1006,    1012,    1019
      12,    1167,    1168,    1183,    1182,    1004,    1005,    1019,    1018
      13,    1166,    1167,    1182,    1172,    1003,    1004,    1018,    1009
      14,    1164,    1165,    1170,    1181,    1001,    1002,    1007,    1017
      15,    1163,    1164,    1181,    1180,    1000,    1001,    1017,    1016
      16,    1162,    1163,    1180,    1179,     999,    1000,    1016,    1015
      17,    1161,    1162,    1179,    1178,     998,     999,    1015,    1014
      18,    1160,    1161,    1178,    1174,     997,     998,    1014,    1011
      19,    1159,    1158,    1173,    1176,     995,     996,    1010,    1013
      20,    1159,    1176,    1177,    1175,     995,    1013,    1021,    1012
** ... 194 like lines cut
*ELEMENT, TYPE=C3D8R, ELSET=EB18
     215,    1459,    1500,    1504,    1493,    1314,    1336,    1335,    1334
     216,    1448,    1459,    1493,    1447,    1303,    1314,    1334,    1302
     217,    1525,    1524,    1526,    1527,    1387,    1379,    1380,    1381
     218,    1531,    1532,    1533,    1530,    1385,    1386,    1388,    1384
     219,    1528,    1529,    1530,    1533,    1382,    1383,    1384,    1388
     220,    1527,    1528,    1533,    1525,    1381,    1382,    1388,    1387
     221,    1523,    1525,    1533,    1532,    1378,    1387,    1388,    1386
     222,    1521,    1522,    1526,    1524,    1376,    1377,    1380,    1379
     223,    1516,    1517,    1523,    1532,    1371,    1372,    1378,    1386
     224,    1515,    1516,    1532,    1531,    1370,    1371,    1386,    1385
     225,    1520,    1514,    1515,    1531,    1375,    1369,    1370,    1385
     226,    1519,    1520,    1531,    1530,    1374,    1375,    1385,    1384
     227,    1518,    1519,    1530,    1529,    1373,    1374,    1384,    1383
     228,    1512,    1513,    1518,    1529,    1367,    1368,    1373,    1383
     229,    1511,    1512,    1529,    1528,    1366,    1367,    1383,    1382
     230,    1510,    1511,    1528,    1527,    1365,    1366,    1382,    1381
     231,    1509,    1510,    1527,    1526,    1364,    1365,    1381,    1380
     232,    1508,    1509,    1526,    1522,    1363,    1364,    1380,    1377
     233,    1507,    1506,    1521,    1524,    1361,    1362,    1376,    1379
     234,    1507,    1524,    1525,    1523,    1361,    1379,    1387,    1378
** ... 194 like lines cut
*ELEMENT, TYPE=C3D8R, ELSET=EB19
     429,    1809,    1838,    1854,    1853,    1662,    1684,    1683,    1682
     430,    1798,    1809,    1853,    1797,    1651,    1662,    1682,    1650
     431,    1885,    1883,    1880,    1881,    1738,    1736,    1733,    1734
     432,    1877,    1885,    1881,    1876,    1730,    1738,    1734,    1729
     433,    1875,    1884,    1882,    1873,    1727,    1737,    1735,    1726
     434,    1885,    1884,    1875,    1883,    1738,    1737,    1727,    1736
     435,    1878,    1879,    1882,    1884,    1731,    1732,    1735,    1737
     436,    1877,    1878,    1884,    1885,    1730,    1731,    1737,    1738
     437,    1875,    1874,    1880,    1883,    1727,    1728,    1733,    1736
     438,    1864,    1865,    1880,    1874,    1717,    1718,    1733,    1728
     439,    1871,    1872,    1873,    1882,    1724,    1725,    1726,    1735
     440,    1870,    1871,    1882,    1879,    1723,    1724,    1735,    1732
     441,    1868,    1869,    1876,    1881,    1721,    1722,    1729,    1734
     442,    1867,    1868,    1881,    1880,    1720,    1721,    1734,    1733
     443,    1866,    1867,    1880,    1865,    1719,    1720,    1733,    1718
     444,    1862,    1863,    1870,    1879,    1715,    1716,    1723,    1732
     445,    1861,    1862,    1879,    1878,    1714,    1715,    1732,    1731
     446,    1860,    1861,    1878,    1877,    1713,    1714,    1731,    1730
     447,    1859,    1860,    1877,    1876,    1712,    1713,    1730,    1729
     448,    1858,    1859,    1876,    1869,    1711,    1712,    1729,    1722
** ... 198 like lines cut
*ELEMENT, TYPE=C3D8R, ELSET=EB20
     647,    2142,    2171,    2181,    2180,    2013,    2029,    2028,    2027
     648,    2125,    2142,    2180,    2124,    1996,    2013,    2027,    1995
     649,    2212,    2210,    2207,    2208,    2083,    2081,    2078,    2079
     650,    2204,    2212,    2208,    2203,    2075,    2083,    2079,    2074
     651,    2202,    2211,    2209,    2200,    2072,    2082,    2080,    2071
     652,    2212,    2211,    2202,    2210,    2083,    2082,    2072,    2081
     653,    2205,    2206,    2209,    2211,    2076,    2077,    2080,    2082
     654,    2204,    2205,    2211,    2212,    2075,    2076,    2082,    2083
     655,    2202,    2201,    2207,    2210,    2072,    2073,    2078,    2081
     656,    2198,    2199,    2207,    2201,    2069,    2070,    2078,    2073
     657,    2196,    2197,    2200,    2209,    2067,    2068,    2071,    2080
     658,    2195,    2196,    2209,    2206,    2066,    2067,    2080,    2077
     659,    2193,    2194,    2203,    2208,    2064,    2065,    2074,    2079
     660,    2192,    2193,    2208,    2207,    2063,    2064,    2079,    2078
     661,    2191,    2192,    2207,    2199,    2062,    2063,    2078,    2070
     662,    2189,    2190,    2195,    2206,    2060,    2061,    2066,    2077
     663,    2188,    2189,    2206,    2205,    2059,    2060,    2077,    2076
     664,    2187,    2188,    2205,    2204,    2058,    2059,    2076,    2075
     665,    2186,    2187,    2204,    2203,    2057,    2058,    2075,    2074
     666,    2185,    2186,    2203,    2194,    2056,    2057,    2074,    2065
** ... 198 like lines cut
*ELEMENT, TYPE=C3D8R, ELSET=EB21
     865,     955,     970,     969,     968,    2397,    2430,    2436,    2424
     866,     937,     955,     968,     936,    2379,    2397,    2424,    2378
     867,    1021,    1013,    1014,    1015,    2455,    2456,    2457,    2458
     868,    1018,    1019,    1022,    1020,    2461,    2462,    2464,    2463
     869,    1016,    1017,    1020,    1022,    2459,    2460,    2463,    2464
     870,    1015,    1016,    1022,    1021,    2458,    2459,    2464,    2455
     871,    1012,    1021,    1022,    1019,    2454,    2455,    2464,    2462
     872,    1010,    1011,    1014,    1013,    2452,    2453,    2457,    2456
     873,    1008,    1009,    1018,    1020,    2450,    2451,    2461,    2463
     874,    1007,    1008,    1020,    1017,    2449,    2450,    2463,    2460
     875,    1005,    1006,    1012,    1019,    2447,    2448,    2454,    2462
     876,    1004,    1005,    1019,    1018,    2446,    2447,    2462,    2461
     877,    1003,    1004,    1018,    1009,    2445,    2446,    2461,    2451
     878,    1001,    1002,    1007,    1017,    2443,    2444,    2449,    2460
     879,    1000,    1001,    1017,    1016,    2442,    2443,    2460,    2459
     880,     999,    1000,    1016,    1015,    2441,    2442,    2459,    2458
     881,     998,     999,    1015,    1014,    2440,    2441,    2458,    2457
     882,     997,     998,    1014,    1011,    2439,    2440,    2457,    2453
     883,     995,     996,    1010,    1013,    2437,    2438,    2452,    2456
     884,     995,    1013,    1021,    1012,    2437,    2456,    2455,    2454
** ... 194 like lines cut
*ELEMENT, TYPE=C3D8R, ELSET=EB22
    1079,    1314,    1336,    1335,    1334,    2622,    2662,    2668,    2656
    1080,    1303,    1314,    1334,    1302,    2611,    2622,    2656,    2610
    1081,    1387,    1379,    1380,    1381,    2687,    2688,    2689,    2690
    1082,    1385,    1386,    1388,    1384,    2694,    2695,    2696,    2693
    1083,    1382,    1383,    1384,    1388,    2691,    2692,    2693,    2696
    1084,    1381,    1382,    1388,    1387,    2690,    2691,    2696,    2687
    1085,    1378,    1387,    1388,    1386,    2686,    2687,    2696,    2695
    1086,    1376,    1377,    1380,    1379,    2684,    2685,    2689,    2688
    1087,    1371,    1372,    1378,    1386,    2679,    2680,    2686,    2695
    1088,    1370,    1371,    1386,    1385,    2678,    2679,    2695,    2694
    1089,    1375,    1369,    1370,    1385,    2683,    2677,    2678,    2694
    1090,    1374,    1375,    1385,    1384,    2682,    2683,    2694,    2693
    1091,    1373,    1374,    1384,    1383,    2681,    2682,    2693,    2692
    1092,    1367,    1368,    1373,    1383,    2675,    2676,    2681,    2692
    1093,    1366,    1367,    1383,    1382,    2674,    2675,    2692,    2691
    1094,    1365,    1366,    1382,    1381,    2673,    2674,    2691,    2690
    1095,    1364,    1365,    1381,    1380,    2672,    2673,    2690,    2689
    1096,    1363,    1364,    1380,    1377,    2671,    2672,    2689,    2685
    1097,    1361,    1362,    1376,    1379,    2669,    2670,    2684,    2688
    1098,    1361,    1379,    1387,    1378,    2669,    2688,    2687,    2686
** ... 194 like lines cut
*ELEMENT, TYPE=C3D8R, ELSET=EB23
    1293,    1662,    1684,    1683,    1682,    2854,    2882,    2900,    2898
    1294,    1651,    1662,    1682,    1650,    2843,    2854,    2898,    2842
    1295,    1738,    1736,    1733,    1734,    2929,    2928,    2925,    2926
    1296,    1730,    1738,    1734,    1729,    2922,    2929,    2926,    2921
    1297,    1727,    1737,    1735,    1726,    2919,    2930,    2927,    2918
    1298,    1738,    1737,    1727,    1736,    2929,    2930,    2919,    2928
    1299,    1731,    1732,    1735,    1737,    2923,    2924,    2927,    2930
    1300,    1730,    1731,    1737,    1738,    2922,    2923,    2930,    2929
    1301,    1727,    1728,    1733,    1736,    2919,    2920,    2925,    2928
    1302,    1717,    1718,    1733,    1728,    2909,    2910,    2925,    2920
    1303,    1724,    1725,    1726,    1735,    2916,    2917,    2918,    2927
    1304,    1723,    1724,    1735,    1732,    2915,    2916,    2927,    2924
    1305,    1721,    1722,    1729,    1734,    2913,    2914,    2921,    2926
    1306,    1720,    1721,    1734,    1733,    2912,    2913,    2926,    2925
    1307,    1719,    1720,    1733,    1718,    2911,    2912,    2925,    2910
    1308,    1715,    1716,    1723,    1732,    2907,    2908,    2915,    2924
    1309,    1714,    1715,    1732,    1731,    2906,    2907,    2924,    2923
    1310,    1713,    1714,    1731,    1730,    2905,    2906,    2923,    2922
    1311,    1712,    1713,    1730,    1729,    2904,    2905,    2922,    2921
    1312,    1711,    1712,    1729,    1722,    2903,    2904,    2921,    2914
** ... 198 like lines cut
*ELEMENT, TYPE=C3D8R, ELSET=EB24
    1511,    2013,    2029,    2028,    2027,    3078,    3106,    3118,    3116
    1512,    1996,    2013,    2027,    1995,    3061,    3078,    3116,    3060
    1513,    2083,    2081,    2078,    2079,    3147,    3146,    3143,    3144
    1514,    2075,    2083,    2079,    2074,    3140,    3147,    3144,    3139
    1515,    2072,    2082,    2080,    2071,    3137,    3148,    3145,    3136
    1516,    2083,    2082,    2072,    2081,    3147,    3148,    3137,    3146
    1517,    2076,    2077,    2080,    2082,    3141,    3142,    3145,    3148
    1518,    2075,    2076,    2082,    2083,    3140,    3141,    3148,    3147
    1519,    2072,    2073,    2078,    2081,    3137,    3138,    3143,    3146
    1520,    2069,    2070,    2078,    2073,    3134,    3135,    3143,    3138
    1521,    2067,    2068,    2071,    2080,    3132,    3133,    3136,    3145
    1522,    2066,    2067,    2080,    2077,    3131,    3132,    3145,    3142
    1523,    2064,    2065,    2074,    2079,    3129,    3130,    3139,    3144
    1524,    2063,    2064,    2079,    2078,    3128,    3129,    3144,    3143
    1525,    2062,    2063,    2078,    2070,    3127,    3128,    3143,    3135
    1526,    2060,    2061,    2066,    2077,    3125,    3126,    3131,    3142
    1527,    2059,    2060,    2077,    2076,    3124,    3125,    3142,    3141
    1528,    2058,    2059,    2076,    2075,    3123,    3124,    3141,    3140
    1529,    2057,    2058,    2075,    2074,    3122,    3123,    3140,    3139
    1530,    2056,    2057,    2074,    2065,    3121,    3122,    3139,    3130
** ... 198 like lines cut
*ELEMENT, TYPE=C3D8R, ELSET=EB25
    1729,     143,     145,    2465,    2303,     251,     272,    3888,    3756
    1730,     144,    2466,    2465,     145,     271,    3889,    3888,     272
    1731,     144,     142,    2369,    2466,     271,     255,    3278,    3889
    1732,    2340,    2350,    2467,    2362,    3254,    3418,    3970,    3390
    1733,    2350,    2349,    2468,    2467,    3418,    3419,    3969,    3970
    1734,    2349,    2348,    2469,    2468,    3419,    3420,    3968,    3969
    1735,    2348,    2347,    2470,    2469,    3420,    3421,    3967,    3968
    1736,    2347,    2346,    2471,    2470,    3421,    3422,    3966,    3967
    1737,    2346,    2345,    2472,    2471,    3422,    3423,    3965,    3966
    1738,    2345,    2344,    2473,    2472,    3423,    3424,    3964,    3965
    1739,    2344,    2343,    2474,    2473,    3424,    3425,    3963,    3964
    1740,    2343,    2342,    2475,    2474,    3425,    3426,    3962,    3963
    1741,    2342,    2341,    2476,    2475,    3426,    3427,    3961,    3962
    1742,    2341,    2320,    2329,    2476,    3427,    3392,    3604,    3961
    1743,    2302,    2310,    2477,    2321,    3579,    3868,    3960,    3612
    1744,    2310,    2309,    2478,    2477,    3868,    3852,    3959,    3960
    1745,    2309,    2308,    2479,    2478,    3852,    3836,    3958,    3959
    1746,    2308,    2307,    2480,    2479,    3836,    3820,    3957,    3958
    1747,    2307,    2306,    2481,    2480,    3820,    3804,    3956,    3957
    1748,    2306,    2305,    2482,    2481,    3804,    3788,    3955,    3956
** ... 1799 like lines cut
*ELEMENT, TYPE=C3D8R, ELSET=EB26
    3548,     176,     178,    2697,    2553,     489,     493,    5860,    5558
    3549,     177,    2698,    2697,     178,     492,    5861,    5860,     493
    3550,     177,     143,    2303,    2698,     492,     251,    3756,    5861
    3551,    2302,    2580,    2699,    2310,    3579,    5696,    5942,    3868
    3552,    2580,    2579,    2700,    2699,    5696,    5697,    5941,    5942
    3553,    2579,    2578,    2701,    2700,    5697,    5698,    5940,    5941
    3554,    2578,    2577,    2702,    2701,    5698,    5699,    5939,    5940
    3555,    2577,    2576,    2703,    2702,    5699,    5700,    5938,    5939
    3556,    2576,    2575,    2704,    2703,    5700,    5701,    5937,    5938
    3557,    2575,    2574,    2705,    2704,    5701,    5702,    5936,    5937
    3558,    2574,    2573,    2706,    2705,    5702,    5703,    5935,    5936
    3559,    2573,    2572,    2707,    2706,    5703,    5704,    5934,    5935
    3560,    2572,    2571,    2708,    2707,    5704,    5705,    5933,    5934
    3561,    2571,    2570,    2600,    2708,    5705,    5390,    5406,    5933
    3562,    2303,    2304,    2709,    2698,    3756,    3772,    5859,    5861
    3563,    2304,    2305,    2710,    2709,    3772,    3788,    5918,    5859
    3564,    2305,    2306,    2711,    2710,    3788,    3804,    5917,    5918
    3565,    2306,    2307,    2712,    2711,    3804,    3820,    5916,    5917
    3566,    2307,    2308,    2713,    2712,    3820,    3836,    5915,    5916
    3567,    2308,    2309,    2714,    2713,    3836,    3852,    5914,    5915
** ... 1799 like lines cut
*ELEMENT, TYPE=C3D8R, ELSET=EB27
    5367,     142,     199,    2931,    2369,     255,     646,    7832,    3278
    5368,     198,    2932,    2931,     199,     645,    7833,    7832,     646
    5369,     198,     197,    2813,    2932,     645,     629,    7375,    7833
    5370,    2784,    2831,    2933,    2786,    7499,    7515,    7916,    7692
    5371,    2831,    2830,    2934,    2933,    7515,    7516,    7915,    7916
    5372,    2830,    2829,    2935,    2934,    7516,    7517,    7914,    7915
    5373,    2829,    2828,    2936,    2935,    7517,    7518,    7913,    7914
    5374,    2828,    2827,    2937,    2936,    7518,    7519,    7912,    7913
    5375,    2827,    2826,    2938,    2937,    7519,    7520,    7911,    7912
    5376,    2826,    2825,    2939,    2938,    7520,    7521,    7910,    7911
    5377,    2825,    2824,    2940,    2939,    7521,    7522,    7909,    7910
    5378,    2824,    2823,    2941,    2940,    7522,    7523,    7908,    7909
    5379,    2823,    2822,    2942,    2941,    7523,    7524,    7907,    7908
    5380,    2822,    2340,    2362,    2942,    7524,    3254,    3390,    7907
    5381,    2813,    2812,    2943,    2932,    7375,    7391,    7831,    7833
    5382,    2812,    2811,    2944,    2943,    7391,    7407,    7906,    7831
    5383,    2811,    2810,    2945,    2944,    7407,    7423,    7905,    7906
    5384,    2810,    2809,    2946,    2945,    7423,    7439,    7904,    7905
    5385,    2809,    2808,    2947,    2946,    7439,    7455,    7903,    7904
    5386,    2808,    2807,    2948,    2947,    7455,    7471,    7902,    7903
** ... 1833 like lines cut
*ELEMENT, TYPE=C3D8R, ELSET=EB28
    7220,     197,     222,    3149,    2813,     629,     799,    9685,    7375
    7221,     221,    3150,    3149,     222,     798,    9686,    9685,     799
    7222,     221,     176,    2553,    3150,     798,     489,    5558,    9686
    7223,    3020,    3030,    3151,    3042,    9342,    9521,    9769,    9375
    7224,    3030,    3029,    3152,    3151,    9521,    9522,    9768,    9769
    7225,    3029,    3028,    3153,    3152,    9522,    9523,    9767,    9768
    7226,    3028,    3027,    3154,    3153,    9523,    9524,    9766,    9767
    7227,    3027,    3026,    3155,    3154,    9524,    9525,    9765,    9766
    7228,    3026,    3025,    3156,    3155,    9525,    9526,    9764,    9765
    7229,    3025,    3024,    3157,    3156,    9526,    9527,    9763,    9764
    7230,    3024,    3023,    3158,    3157,    9527,    9528,    9762,    9763
    7231,    3023,    3022,    3159,    3158,    9528,    9529,    9761,    9762
    7232,    3022,    3021,    3160,    3159,    9529,    9530,    9760,    9761
    7233,    3021,    2785,    2806,    3160,    9530,    7351,    7487,    9760
    7234,    2806,    2807,    3161,    3160,    7487,    7471,    9746,    9760
    7235,    2807,    2808,    3162,    3161,    7471,    7455,    9745,    9746
    7236,    2808,    2809,    3163,    3162,    7455,    7439,    9744,    9745
    7237,    2809,    2810,    3164,    3163,    7439,    7423,    9743,    9744
    7238,    2810,    2811,    3165,    3164,    7423,    7407,    9742,    9743
    7239,    2811,    2812,    3166,    3165,    7407,    7391,    9741,    9742
** ... 1833 like lines cut
*ELEMENT, TYPE=C3D8R, ELSET=EB3
    9073,       7,      10,      45,      18,       8,      11,      48,      20
    9074,      18,      45,      44,      17,      20,      48,      47,      19
    9075,       2,      33,      45,      10,       4,      37,      48,      11
    9076,      33,      32,      44,      45,      37,      36,      47,      48
    9077,      31,      32,      36,      35,      40,      44,      47,      42
    9078,       1,       6,      30,      24,       3,      12,      50,      39
    9079,      24,      30,      29,      25,      39,      50,      49,      38
    9080,       3,      12,      50,      39,       4,      11,      48,      37
    9081,      39,      50,      49,      38,      37,      48,      47,      36
    9082,      23,      25,      29,      27,      34,      38,      49,      43
    9083,      34,      38,      49,      43,      35,      36,      47,      42
    9084,      26,      27,      29,      28,      41,      43,      49,      46
    9085,      41,      43,      49,      46,      40,      42,      47,      44
    9086,       5,       9,      22,      14,       6,      12,      50,      30
    9087,       9,       8,      20,      22,      12,      11,      48,      50
    9088,      14,      22,      21,      15,      30,      50,      49,      29
    9089,      22,      20,      19,      21,      50,      48,      47,      49
    9090,      13,      15,      21,      16,      28,      29,      49,      46
    9091,      16,      21,      19,      17,      46,      49,      47,      44
*ELEMENT, TYPE=C3D8R, ELSET=EB4
    9092,      26,      28,      76,      75,      41,      46,      82,      79
    9093,      41,      46,      82,      79,      40,      44,      80,      78
    9094,      66,      75,      76,      67,      70,      79,      82,      73
    9095,      70,      79,      82,      73,      69,      78,      80,      71
    9096,      51,      53,      74,      68,      57,      59,      83,      77
    9097,      53,      52,      72,      74,      59,      58,      81,      83
    9098,      68,      74,      73,      67,      77,      83,      82,      76
    9099,      74,      72,      71,      73,      83,      81,      80,      82
    9100,      13,      60,      76,      28,      16,      64,      82,      46
    9101,      16,      64,      82,      46,      17,      62,      80,      44
    9102,      31,      69,      71,      32,      40,      78,      80,      44
    9103,       2,      52,      58,      10,      33,      72,      81,      45
    9104,      33,      72,      81,      45,      32,      71,      80,      44
    9105,       7,      10,      58,      56,      18,      45,      81,      63
    9106,      18,      45,      81,      63,      17,      44,      80,      62
    9107,      54,      55,      59,      57,      61,      65,      83,      77
    9108,      55,      56,      58,      59,      65,      63,      81,      83
    9109,      61,      65,      83,      77,      60,      64,      82,      76
    9110,      65,      63,      81,      83,      64,      62,      80,      82
*ELEMENT, TYPE=C3D8R, ELSET=EB5
    9111,      26,      27,     115,     103,      28,      29,     118,     107
    9112,     103,     115,     114,     104,     107,     118,     116,     105
    9113,       1,      86,     113,      24,       6,      92,     119,      30
    9114,      86,      85,     111,     113,      92,      91,     117,     119
    9115,      24,     113,     112,      25,      30,     119,     118,      29
    9116,     113,     111,     110,     112,     119,     117,     116,     118
    9117,      23,      25,     112,     109,      27,      29,     118,     115
    9118,     109,     112,     110,     108,     115,     118,     116,     114
    9119,     100,     108,     110,     102,     104,     114,     116,     105
    9120,      84,     101,     111,      85,      88,     106,     117,      91
    9121,     101,     102,     110,     111,     106,     105,     116,     117
    9122,      13,      95,      98,      15,      28,     107,     118,      29
    9123,      95,      94,      96,      98,     107,     105,     116,     118
    9124,       5,      14,      99,      89,       6,      30,     119,      92
    9125,      14,      15,      98,      99,      30,      29,     118,     119
    9126,      89,      99,      97,      90,      92,     119,     117,      91
    9127,      99,      98,      96,      97,     119,     118,     116,     117
    9128,      87,      88,      91,      90,      93,     106,     117,      97
    9129,      93,     106,     117,      97,      94,     105,     116,      96
*ELEMENT, TYPE=C3D8R, ELSET=EB6
    9130,      84,     121,     133,     101,      88,     124,     139,     106
    9131,     101,     133,     132,     102,     106,     139,     138,     105
    9132,     100,     131,     136,     104,     102,     132,     138,     105
    9133,      13,      60,     128,      95,      28,      76,     140,     107
    9134,      95,     128,     126,      94,     107,     140,     138,     105
    9135,      87,     122,     124,      88,      93,     127,     139,     106
    9136,      93,     127,     139,     106,      94,     126,     138,     105
    9137,      26,     103,     137,      75,      28,     107,     140,      76
    9138,     103,     104,     136,     137,     107,     105,     138,     140
    9139,      66,     130,     134,      67,      75,     137,     140,      76
    9140,     130,     131,     132,     134,     137,     136,     138,     140
    9141,      51,     120,     125,      57,      68,     135,     141,      77
    9142,     120,     121,     124,     125,     135,     133,     139,     141
    9143,      68,     135,     141,      77,      67,     134,     140,      76
    9144,     135,     133,     139,     141,     134,     132,     138,     140
    9145,      54,      57,     125,     123,      61,      77,     141,     129
    9146,     123,     125,     124,     122,     129,     141,     139,     127
    9147,      61,      77,     141,     129,      60,      76,     140,     128
    9148,     129,     141,     139,     127,     128,     140,     138,     126
*ELEMENT, TYPE=C3D8R, ELSET=EB7
    9149,       2,     147,     168,      33,       4,     148,     173,      37
    9150,      33,     168,     167,      32,      37,     173,     172,      36
    9151,     150,     154,     169,     158,     152,     156,     174,     163
    9152,     158,     169,     167,     159,     163,     174,     172,     161
    9153,     143,     160,     168,     147,     145,     162,     173,     148
    9154,     160,     159,     167,     168,     162,     161,     172,     173
    9155,     142,     146,     157,     151,     144,     149,     175,     164
    9156,     151,     157,     156,     152,     164,     175,     174,     163
    9157,     144,     149,     175,     164,     145,     148,     173,     162
    9158,     164,     175,     174,     163,     162,     173,     172,     161
    9159,     153,     154,     156,     155,     165,     169,     174,     171
    9160,     165,     169,     174,     171,     166,     167,     172,     170
    9161,      23,     155,     156,      25,      34,     171,     174,      38
    9162,      34,     171,     174,      38,      35,     170,     172,      36
    9163,       1,      24,     157,     146,       3,      39,     175,     149
    9164,      24,      25,     156,     157,      39,      38,     174,     175
    9165,       3,      39,     175,     149,       4,      37,     173,     148
    9166,      39,      38,     174,     175,      37,      36,     172,     173
    9167,      31,     166,     170,      35,      32,     167,     172,      36
*ELEMENT, TYPE=C3D8R, ELSET=EB8
    9168,      51,     179,     190,      68,      53,     181,     196,      74
    9169,      68,     190,     189,      67,      74,     196,     195,      73
    9170,      53,     181,     196,      74,      52,     180,     194,      72
    9171,      74,     196,     195,      73,      72,     194,     193,      71
    9172,      66,      67,     189,     188,      70,      73,     195,     192
    9173,      70,      73,     195,     192,      69,      71,     193,     191
    9174,     153,     188,     189,     154,     165,     192,     195,     169
    9175,     165,     192,     195,     169,     166,     191,     193,     167
    9176,     150,     154,     189,     182,     158,     169,     195,     186
    9177,     158,     169,     195,     186,     159,     167,     193,     184
    9178,     176,     183,     190,     179,     178,     187,     196,     181
    9179,     183,     182,     189,     190,     187,     186,     195,     196
    9180,     178,     187,     196,     181,     177,     185,     194,     180
    9181,     187,     186,     195,     196,     185,     184,     193,     194
    9182,       2,      52,      72,      33,     147,     180,     194,     168
    9183,      33,      72,      71,      32,     168,     194,     193,     167
    9184,      31,      69,     191,     166,      32,      71,     193,     167
    9185,     143,     177,     180,     147,     160,     185,     194,     168
    9186,     160,     185,     194,     168,     159,     184,     193,     167
*ELEMENT, TYPE=C3D8R, ELSET=EB9
    9187,     100,     108,     215,     206,     102,     110,     217,     208
    9188,     153,     207,     216,     155,     154,     210,     219,     156
    9189,     207,     206,     215,     216,     210,     208,     217,     219
    9190,      23,     109,     112,      25,     155,     216,     219,     156
    9191,     109,     108,     110,     112,     216,     215,     217,     219
    9192,     142,     199,     214,     151,     146,     202,     220,     157
    9193,     199,     198,     212,     214,     202,     201,     218,     220
    9194,     151,     214,     213,     152,     157,     220,     219,     156
    9195,     214,     212,     211,     213,     220,     218,     217,     219
    9196,     197,     203,     212,     198,     200,     209,     218,     201
    9197,     203,     204,     211,     212,     209,     208,     217,     218
    9198,     150,     205,     210,     154,     152,     213,     219,     156
    9199,     205,     204,     208,     210,     213,     211,     217,     219
    9200,       1,     146,     157,      24,      86,     202,     220,     113
    9201,      24,     157,     156,      25,     113,     220,     219,     112
    9202,      86,     202,     220,     113,      85,     201,     218,     111
    9203,     113,     220,     219,     112,     111,     218,     217,     110
    9204,      84,     200,     201,      85,     101,     209,     218,     111
    9205,     101,     209,     218,     111,     102,     208,     217,     110
*ELEMENT, TYPE=C3D8R, ELSET=EB10
    9206,     153,     188,     230,     207,     154,     189,     233,     210
    9207,     207,     230,     229,     206,     210,     233,     231,     208
    9208,     100,     131,     132,     102,     206,     229,     231,     208
    9209,      84,     121,     223,     200,     101,     133,     232,     209
    9210,     101,     133,     232,     209,     102,     132,     231,     208
    9211,     197,     222,     226,     203,     200,     223,     232,     209
    9212,     203,     226,     225,     204,     209,     232,     231,     208
    9213,     150,     205,     227,     182,     154,     210,     233,     189
    9214,     205,     204,     225,     227,     210,     208,     231,     233
    9215,     176,     183,     228,     221,     179,     190,     234,     224
    9216,     183,     182,     227,     228,     190,     189,     233,     234
    9217,     221,     228,     226,     222,     224,     234,     232,     223
    9218,     228,     227,     225,     226,     234,     233,     231,     232
    9219,      51,     120,     135,      68,     179,     224,     234,     190
    9220,     120,     121,     133,     135,     224,     223,     232,     234
    9221,      68,     135,     134,      67,     190,     234,     233,     189
    9222,     135,     133,     132,     134,     234,     232,     231,     233
    9223,      66,     130,     230,     188,      67,     134,     233,     189
    9224,     130,     131,     229,     230,     134,     132,     231,     233
*ELEMENT, TYPE=C3D8R, ELSET=EB11
    9225,     164,     151,     142,     144,     408,     373,     255,     271
    9226,     162,     164,     144,     145,     405,     408,     271,     272
    9227,     163,     152,     151,     164,     407,     389,     373,     408
    9228,     161,     163,     164,     162,     406,     407,     408,     405
    9229,     163,     158,     150,     152,     407,     370,     304,     389
    9230,     161,     159,     158,     163,     406,     354,     370,     407
    9231,     162,     145,     143,     160,     405,     272,     251,     338
    9232,     161,     162,     160,     159,     406,     405,     338,     354
    9233,     408,     373,     255,     271,     412,     374,     256,     273
    9234,     405,     408,     271,     272,     409,     412,     273,     274
    9235,     407,     389,     373,     408,     411,     390,     374,     412
    9236,     406,     407,     408,     405,     410,     411,     412,     409
    9237,     407,     370,     304,     389,     411,     369,     305,     390
    9238,     406,     354,     370,     407,     410,     353,     369,     411
    9239,     405,     272,     251,     338,     409,     274,     250,     337
    9240,     406,     405,     338,     354,     410,     409,     337,     353
    9241,     412,     374,     256,     273,     416,     375,     257,     275
    9242,     409,     412,     273,     274,     413,     416,     275,     276
    9243,     411,     390,     374,     412,     415,     391,     375,     416
    9244,     410,     411,     412,     409,     414,     415,     416,     413
** ... 116 like lines cut
*ELEMENT, TYPE=C3D8R, ELSET=EB12
    9361,     185,     160,     143,     177,     560,     338,     251,     492
    9362,     184,     159,     160,     185,     561,     354,     338,     560
    9363,     186,     182,     150,     158,     558,     557,     304,     370
    9364,     184,     186,     158,     159,     561,     558,     370,     354
    9365,     187,     178,     176,     183,     559,     493,     489,     541
    9366,     186,     187,     183,     182,     558,     559,     541,     557
    9367,     185,     177,     178,     187,     560,     492,     493,     559
    9368,     184,     185,     187,     186,     561,     560,     559,     558
    9369,     560,     338,     251,     492,     564,     337,     250,     494
    9370,     561,     354,     338,     560,     565,     353,     337,     564
    9371,     558,     557,     304,     370,     562,     556,     305,     369
    9372,     561,     558,     370,     354,     565,     562,     369,     353
    9373,     559,     493,     489,     541,     563,     495,     488,     540
    9374,     558,     559,     541,     557,     562,     563,     540,     556
    9375,     560,     492,     493,     559,     564,     494,     495,     563
    9376,     561,     560,     559,     558,     565,     564,     563,     562
    9377,     564,     337,     250,     494,     568,     336,     249,     496
    9378,     565,     353,     337,     564,     569,     352,     336,     568
    9379,     562,     556,     305,     369,     566,     555,     306,     368
    9380,     565,     562,     369,     353,     569,     566,     368,     352
** ... 116 like lines cut
*ELEMENT, TYPE=C3D8R, ELSET=EB13
    9497,     212,     203,     197,     198,     730,     680,     629,     645
    9498,     211,     204,     203,     212,     731,     696,     680,     730
    9499,     213,     152,     150,     205,     728,     389,     304,     712
    9500,     211,     213,     205,     204,     731,     728,     712,     696
    9501,     214,     199,     142,     151,     729,     646,     255,     373
    9502,     213,     214,     151,     152,     728,     729,     373,     389
    9503,     212,     198,     199,     214,     730,     645,     646,     729
    9504,     211,     212,     214,     213,     731,     730,     729,     728
    9505,     730,     680,     629,     645,     734,     681,     630,     647
    9506,     731,     696,     680,     730,     735,     697,     681,     734
    9507,     728,     389,     304,     712,     732,     390,     305,     713
    9508,     731,     728,     712,     696,     735,     732,     713,     697
    9509,     729,     646,     255,     373,     733,     648,     256,     374
    9510,     728,     729,     373,     389,     732,     733,     374,     390
    9511,     730,     645,     646,     729,     734,     647,     648,     733
    9512,     731,     730,     729,     728,     735,     734,     733,     732
    9513,     734,     681,     630,     647,     738,     682,     631,     649
    9514,     735,     697,     681,     734,     739,     698,     682,     738
    9515,     732,     390,     305,     713,     736,     391,     306,     714
    9516,     735,     732,     713,     697,     739,     736,     714,     698
** ... 116 like lines cut
*ELEMENT, TYPE=C3D8R, ELSET=EB14
    9633,     228,     183,     176,     221,     833,     541,     489,     798
    9634,     226,     228,     221,     222,     830,     833,     798,     799
    9635,     227,     182,     183,     228,     832,     557,     541,     833
    9636,     225,     227,     228,     226,     831,     832,     833,     830
    9637,     227,     205,     150,     182,     832,     712,     304,     557
    9638,     225,     204,     205,     227,     831,     696,     712,     832
    9639,     226,     222,     197,     203,     830,     799,     629,     680
    9640,     225,     226,     203,     204,     831,     830,     680,     696
    9641,     833,     541,     489,     798,     837,     540,     488,     800
    9642,     830,     833,     798,     799,     834,     837,     800,     801
    9643,     832,     557,     541,     833,     836,     556,     540,     837
    9644,     831,     832,     833,     830,     835,     836,     837,     834
    9645,     832,     712,     304,     557,     836,     713,     305,     556
    9646,     831,     696,     712,     832,     835,     697,     713,     836
    9647,     830,     799,     629,     680,     834,     801,     630,     681
    9648,     831,     830,     680,     696,     835,     834,     681,     697
    9649,     837,     540,     488,     800,     841,     539,     487,     802
    9650,     834,     837,     800,     801,     838,     841,     802,     803
    9651,     836,     556,     540,     837,     840,     555,     539,     841
    9652,     835,     836,     837,     834,     839,     840,     841,     838
** ... 116 like lines cut
**
********************************** N O D E S E T S **********************************
*NSET, NSET=NS1
    1273,    1284,    1285,    1286,    1287,    1288,
    1289,    1290,    1291,    1292,    1293,    1389,
    1390,    1407,    1408,    1409,    1410,    1411,
    1412,    1413,    1414,    1415,    1416,    1417,
    1418,    1419,    1420,    1421,    1422,    1423,
    1424,    1425,    1426,    1975,    1976,    1977,
    1978,    1979,    1980,    1981,    1982,    1983,
    1984,    2084,    2085,    2086,    2087,    2088,
    2089,    2090,    2091,    2092,    2093,    2094,
    2095,    2096,    2097,    2098,    2099,    2100,
    2101,    2102,    2103,    2552,    2561,    2570,
    2581,    2592,    2593,    2594,    2595,    2596,
    2597,    2598,    2599,    2600,    2601,    2602,
    2603,    2604,    2605,    2606,    2607,    2608,
    2609,    3020,    3031,    3042,    3043,    3044,
    3045,    3046,    3047,    3048,    3049,    3050,
    3051,    3052,    3053,    3054,    3055,    3056,
    3057,    3058,    3059,    5363,    5364,    5365,
    5366,    5367,    5368,    5369,    5370,    5371,
    5372,    5373,    5374,    5375,    5376,    5377,
** ... 57 like lines cut
*NSET, NSET=NS2
     898,     907,     908,     909,     910,     911,
     912,     913,     914,     915,     916,     917,
    1041,    1050,    1059,    1060,    1079,    1080,
    1081,    1082,    1083,    1084,    1085,    1086,
    1087,    1088,    1089,    1090,    1091,    1092,
    1093,    1094,    1095,    1096,    1097,    1098,
    1630,    1640,    1641,    1642,    1643,    1644,
    1645,    1646,    1647,    1648,    1649,    1739,
    1740,    1741,    1742,    1743,    1744,    1745,
    1746,    1747,    1748,    1749,    1750,    1751,
    1752,    1753,    1754,    1755,    1756,    1757,
    1758,    1759,    1760,    2320,    2330,    2340,
    2341,    2342,    2343,    2344,    2345,    2346,
    2347,    2348,    2349,    2350,    2351,    2352,
    2353,    2354,    2355,    2356,    2357,    2358,
    2359,    2360,    2361,    2784,    2796,    2822,
    2823,    2824,    2825,    2826,    2827,    2828,
    2829,    2830,    2831,    2832,    2833,    2834,
    2835,    2836,    2837,    2838,    2839,    2840,
    2841,    3238,    3239,    3240,    3241,    3242,
** ... 65 like lines cut
*NSET, NSET=NS3
     907,     918,     919,     920,     921,     922,
     923,     924,     925,     926,     927,    1023,
    1024,    1059,    1060,    1061,    1062,    1063,
    1064,    1065,    1066,    1067,    1068,    1069,
    1070,    1071,    1072,    1073,    1074,    1075,
    1076,    1077,    1078,    1273,    1274,    1275,
    1276,    1277,    1278,    1279,    1280,    1281,
    1282,    1283,    1407,    1408,    1427,    1428,
    1429,    1430,    1431,    1432,    1433,    1434,
    1435,    1436,    1437,    1438,    1439,    1440,
    1441,    1442,    1443,    1444,    1445,    1446,
    2302,    2311,    2320,    2321,    2322,    2323,
    2324,    2325,    2326,    2327,    2328,    2329,
    2330,    2331,    2332,    2333,    2334,    2335,
    2336,    2337,    2338,    2339,    2570,    2571,
    2572,    2573,    2574,    2575,    2576,    2577,
    2578,    2579,    2580,    2581,    2582,    2583,
    2584,    2585,    2586,    2587,    2588,    2589,
    2590,    2591,    3391,    3392,    3393,    3394,
    3395,    3396,    3397,    3398,    3399,    3400,
** ... 61 like lines cut
*NSET, NSET=NS4
    1621,    1630,    1631,    1632,    1633,    1634,
    1635,    1636,    1637,    1638,    1639,    1739,
    1740,    1761,    1762,    1763,    1764,    1765,
    1766,    1767,    1768,    1769,    1770,    1771,
    1772,    1773,    1774,    1775,    1776,    1777,
    1778,    1779,    1780,    1975,    1985,    1986,
    1987,    1988,    1989,    1990,    1991,    1992,
    1993,    1994,    2084,    2094,    2104,    2105,
    2106,    2107,    2108,    2109,    2110,    2111,
    2112,    2113,    2114,    2115,    2116,    2117,
    2118,    2119,    2120,    2121,    2122,    2123,
    2784,    2785,    2786,    2787,    2788,    2789,
    2790,    2791,    2792,    2793,    2794,    2795,
    2796,    2797,    2798,    2799,    2800,    2801,
    2802,    2803,    2804,    2805,    3020,    3021,
    3022,    3023,    3024,    3025,    3026,    3027,
    3028,    3029,    3030,    3031,    3032,    3033,
    3034,    3035,    3036,    3037,    3038,    3039,
    3040,    3041,    7335,    7336,    7337,    7338,
    7339,    7340,    7341,    7342,    7343,    7344,
** ... 61 like lines cut
*NSET, NSET=NS5
     235,     252,     253,     254,     303,     320,
     321,     322,     371,     372,     469,     470,
     471,     472,     473,     490,     491,     524,
     525,     622,     623,     624,     625,     626,
     627,     628,     677,     678,     679,     792,
     793,     794,     795,     796,     797,     894,
     895,     896,     897,    3238,    3255,    3256,
    3257,    3258,    3259,    3260,    3261,    3262,
    3391,    3408,    3409,    3410,    3411,    3412,
    3413,    3414,    3415,    3416,    3417,    3578,
    3595,    3596,    3597,    3598,    3599,    3600,
    3601,    3602,    3603,    3748,    3749,    3750,
    3751,    3752,    3753,    3754,    3755,    5276,
    5277,    5278,    5279,    5280,    5281,    5282,
    5283,    5284,    5285,    5286,    5287,    5288,
    5289,    5290,    5291,    5292,    5293,    5294,
    5295,    5296,    5297,    5298,    5299,    5300,
    5301,    5302,    5303,    5304,    5305,    5306,
    5307,    5308,    5309,    5310,    5311,    5312,
    5313,    5314,    5315,    5316,    5317,    5318,
** ... 65 like lines cut
*NSET, NSET=NS6
       5,       7,       8,       9,      13,      14,
      15,      16,      17,      18,      19,      20,
      21,      22,      54,      55,      56,      60,
      61,      62,      63,      64,      65,      87,
      89,      90,      93,      94,      95,      96,
      97,      98,      99,     122,     123,     126,
     127,     128,     129,    1023,    1025,    1026,
    1027,    1028,    1029,    1030,    1031,    1032,
    1041,    1042,    1043,    1044,    1045,    1046,
    1047,    1048,    1049,    1059,    1061,    1062,
    1063,    1064,    1065,    1066,    1067,    1068,
    1069,    1079,    1080,    1081,    1082,    1083,
    1084,    1085,    1086,    1087,    1088,    1186,
    1187,    1188,    1189,    1190,    1191,    1192,
    1193,    1194,    1195,    1196,    1197,    1198,
    1199,    1200,    1201,    1202,    1203,    1204,
    1205,    1206,    1207,    1208,    1209,    1210,
    1211,    1212,    1213,    1214,    1215,    1216,
    1217,    1218,    1219,    1220,    1221,    1222,
    1223,    1224,    1225,    1226,    1227,    1228,
** ... 65 like lines cut
*NSET, NSET=NS99
      23,      26,      27,      31,      34,      35,
      40,      41,      42,      43,      66,      69,
      70,      75,      78,      79,     100,     103,
     104,     108,     109,     114,     115,     130,
     131,     136,     137,     153,     155,     165,
     166,     170,     171,     188,     191,     192,
     206,     207,     215,     216,     229,     230,
**
********************************** S I D E S E T S **********************************
*ELSET, ELSET=xmin_S3
     292,     293,     294,     295,     296,     297,     298,     299,     300,     399,
     400,     401,     402,     403,     404,     405,     406,     407,     719,     720,
     721,     722,     723,     724,     725,     726,     828,     829,     830,     831,
     832,     833,     834,     835,    1156,    1157,    1158,    1159,    1160,    1161,
    1162,    1163,    1164,    1263,    1264,    1265,    1266,    1267,    1268,    1269,
    1270,    1271,    1583,    1584,    1585,    1586,    1587,    1588,    1589,    1590,
    1692,    1693,    1694,    1695,    1696,    1697,    1698,    1699,    3569,    3570,
    3571,    3572,    3573,    3574,    3575,    3576,    3577,    3676,    3677,    3678,
    3679,    3680,    3681,    3682,    3683,    3684,    3783,    3784,    3785,    3786,
    3787,    3788,    3789,    3790,    3791,    3890,    3891,    3892,    3893,    3894,
    3895,    3896,    3897,    3898,    3997,    3998,    3999,    4000,    4001,    4002,
    4003,    4004,    4005,    4104,    4105,    4106,    4107,    4108,    4109,    4110,
    4111,    4112,    4211,    4212,    4213,    4214,    4215,    4216,    4217,    4218,
    4219,    4318,    4319,    4320,    4321,    4322,    4323,    4324,    4325,    4326,
    4425,    4426,    4427,    4428,    4429,    4430,    4431,    4432,    4433,    4532,
    4533,    4534,    4535,    4536,    4537,    4538,    4539,    4540,    4639,    4640,
    4641,    4642,    4643,    4644,    4645,    4646,    4647,    4746,    4747,    4748,
    4749,    4750,    4751,    4752,    4753,    4754,    4853,    4854,    4855,    4856,
    4857,    4858,    4859,    4860,    4861,    4960,    4961,    4962,    4963,    4964,
    4965,    4966,    4967,    4968,    5067,    5068,    5069,    5070,    5071,    5072,
** ... 16 like lines cut
*ELSET, ELSET=xmin_S4
     308,     415,     727,     836,    1172,    1279,    1591,    1700,    3561,    3668,
    3775,    3882,    3989,    4096,    4203,    4310,    4417,    4524,    4631,    4738,
    4845,    4952,    5059,    5166,    5273,    7248,    7357,    7466,    7575,    7684,
    7793,    7902,    8011,    8120,    8229,    8338,    8447,    8556,    8665,    8774,
    8883,    8992
*ELSET, ELSET=xmin_S6
     752,     861,    1616,    1725,    7223,    7332,    7441,    7550,    7659,    7768,
    7877,    7986,    8095,    8204,    8313,    8422,    8531,    8640,    8749,    8858,
    8967
*SURFACE, NAME=xmin
xmin_S3, S3
xmin_S4, S4
xmin_S6, S6
*ELSET, ELSET=xmax_S3
      94,      95,      96,      97,      98,      99,     100,     101,     102,     103,
     104,     201,     202,     203,     204,     205,     206,     207,     208,     209,
     210,     211,     524,     525,     526,     527,     528,     529,     530,     531,
     532,     533,     534,     633,     634,     635,     636,     637,     638,     639,
     640,     641,     642,     643,     958,     959,     960,     961,     962,     963,
     964,     965,     966,     967,     968,    1065,    1066,    1067,    1068,    1069,
    1070,    1071,    1072,    1073,    1074,    1075,    1388,    1389,    1390,    1391,
    1392,    1393,    1394,    1395,    1396,    1397,    1398,    1497,    1498,    1499,
    1500,    1501,    1502,    1503,    1504,    1505,    1506,    1507,    1732,    1733,
    1734,    1735,    1736,    1737,    1738,    1739,    1740,    1741,    1742,    1839,
    1840,    1841,    1842,    1843,    1844,    1845,    1846,    1847,    1848,    1849,
    1946,    1947,    1948,    1949,    1950,    1951,    1952,    1953,    1954,    1955,
    1956,    2053,    2054,    2055,    2056,    2057,    2058,    2059,    2060,    2061,
    2062,    2063,    2160,    2161,    2162,    2163,    2164,    2165,    2166,    2167,
    2168,    2169,    2170,    2267,    2268,    2269,    2270,    2271,    2272,    2273,
    2274,    2275,    2276,    2277,    2374,    2375,    2376,    2377,    2378,    2379,
    2380,    2381,    2382,    2383,    2384,    2481,    2482,    2483,    2484,    2485,
    2486,    2487,    2488,    2489,    2490,    2491,    2588,    2589,    2590,    2591,
    2592,    2593,    2594,    2595,    2596,    2597,    2598,    2695,    2696,    2697,
    2698,    2699,    2700,    2701,    2702,    2703,    2704,    2705,    2802,    2803,
** ... 27 like lines cut
*SURFACE, NAME=xmax
xmax_S3, S3
*ELSET, ELSET=ymin_S3
      71,      72,      73,      74,      75,      76,      77,      78,     178,     179,
     180,     181,     182,     183,     184,     185,     308,     309,     310,     311,
     312,     313,     314,     315,     316,     317,     318,     415,     416,     417,
     418,     419,     420,     421,     422,     423,     424,     425,     935,     936,
     937,     938,     939,     940,     941,     942,    1042,    1043,    1044,    1045,
    1046,    1047,    1048,    1049,    1172,    1173,    1174,    1175,    1176,    1177,
    1178,    1179,    1180,    1181,    1182,    1279,    1280,    1281,    1282,    1283,
    1284,    1285,    1286,    1287,    1288,    1289,    1758,    1759,    1760,    1761,
    1762,    1763,    1764,    1765,    1865,    1866,    1867,    1868,    1869,    1870,
    1871,    1872,    1972,    1973,    1974,    1975,    1976,    1977,    1978,    1979,
    2079,    2080,    2081,    2082,    2083,    2084,    2085,    2086,    2186,    2187,
    2188,    2189,    2190,    2191,    2192,    2193,    2293,    2294,    2295,    2296,
    2297,    2298,    2299,    2300,    2400,    2401,    2402,    2403,    2404,    2405,
    2406,    2407,    2507,    2508,    2509,    2510,    2511,    2512,    2513,    2514,
    2614,    2615,    2616,    2617,    2618,    2619,    2620,    2621,    2721,    2722,
    2723,    2724,    2725,    2726,    2727,    2728,    2828,    2829,    2830,    2831,
    2832,    2833,    2834,    2835,    2935,    2936,    2937,    2938,    2939,    2940,
    2941,    2942,    3042,    3043,    3044,    3045,    3046,    3047,    3048,    3049,
    3149,    3150,    3151,    3152,    3153,    3154,    3155,    3156,    3256,    3257,
    3258,    3259,    3260,    3261,    3262,    3263,    3363,    3364,    3365,    3366,
** ... 20 like lines cut
*ELSET, ELSET=ymin_S4
      94,     201,     958,    1065,    1742,    1849,    1956,    2063,    2170,    2277,
    2384,    2491,    2598,    2705,    2812,    2919,    3026,    3133,    3240,    3347,
    3454
*ELSET, ELSET=ymin_S6
      93,     200,     957,    1064,    1743,    1850,    1957,    2064,    2171,    2278,
    2385,    2492,    2599,    2706,    2813,    2920,    3027,    3134,    3241,    3348,
    3455
*SURFACE, NAME=ymin
ymin_S3, S3
ymin_S4, S4
ymin_S6, S6
*ELSET, ELSET=ymax_S3
     501,     502,     503,     504,     505,     506,     507,     508,     610,     611,
     612,     613,     614,     615,     616,     617,     742,     743,     744,     745,
     746,     747,     748,     749,     750,     751,     752,     851,     852,     853,
     854,     855,     856,     857,     858,     859,     860,     861,    1365,    1366,
    1367,    1368,    1369,    1370,    1371,    1372,    1474,    1475,    1476,    1477,
    1478,    1479,    1480,    1481,    1606,    1607,    1608,    1609,    1610,    1611,
    1612,    1613,    1614,    1615,    1616,    1715,    1716,    1717,    1718,    1719,
    1720,    1721,    1722,    1723,    1724,    1725,    5396,    5397,    5398,    5399,
    5400,    5401,    5402,    5403,    5505,    5506,    5507,    5508,    5509,    5510,
    5511,    5512,    5614,    5615,    5616,    5617,    5618,    5619,    5620,    5621,
    5723,    5724,    5725,    5726,    5727,    5728,    5729,    5730,    5832,    5833,
    5834,    5835,    5836,    5837,    5838,    5839,    5941,    5942,    5943,    5944,
    5945,    5946,    5947,    5948,    6050,    6051,    6052,    6053,    6054,    6055,
    6056,    6057,    6159,    6160,    6161,    6162,    6163,    6164,    6165,    6166,
    6268,    6269,    6270,    6271,    6272,    6273,    6274,    6275,    6377,    6378,
    6379,    6380,    6381,    6382,    6383,    6384,    6486,    6487,    6488,    6489,
    6490,    6491,    6492,    6493,    6595,    6596,    6597,    6598,    6599,    6600,
    6601,    6602,    6704,    6705,    6706,    6707,    6708,    6709,    6710,    6711,
    6813,    6814,    6815,    6816,    6817,    6818,    6819,    6820,    6922,    6923,
    6924,    6925,    6926,    6927,    6928,    6929,    7031,    7032,    7033,    7034,
** ... 20 like lines cut
*ELSET, ELSET=ymax_S4
     516,     625,    1380,    1489,    5388,    5497,    5606,    5715,    5824,    5933,
    6042,    6151,    6260,    6369,    6478,    6587,    6696,    6805,    6914,    7023,
    7132
*ELSET, ELSET=ymax_S6
     534,     643,    1398,    1507,    5370,    5479,    5588,    5697,    5806,    5915,
    6024,    6133,    6242,    6351,    6460,    6569,    6678,    6787,    6896,    7005,
    7114
*SURFACE, NAME=ymax
ymax_S3, S3
ymax_S4, S4
ymax_S6, S6
*ELSET, ELSET=zmin_S2
    3441,    3442,    3443,    3444,    3445,    3446,    3447,    3448,    3449,    3450,
    3451,    3452,    3453,    3454,    3455,    3456,    3457,    3458,    3459,    3460,
    3461,    3462,    3463,    3464,    3465,    3466,    3467,    3468,    3469,    3470,
    3471,    3472,    3473,    3474,    3475,    3476,    3477,    3478,    3479,    3480,
    3481,    3482,    3483,    3484,    3485,    3486,    3487,    3488,    3489,    3490,
    3491,    3492,    3493,    3494,    3495,    3496,    3497,    3498,    3499,    3500,
    3501,    3502,    3503,    3504,    3505,    3506,    3507,    3508,    3509,    3510,
    3511,    3512,    3513,    3514,    3515,    3516,    3517,    3518,    3519,    3520,
    3521,    3522,    3523,    3524,    3525,    3526,    3527,    3528,    3529,    3530,
    3531,    3532,    3533,    3534,    3535,    3536,    3537,    3538,    3539,    3540,
    3541,    3542,    3543,    3544,    3545,    3546,    3547,    5260,    5261,    5262,
    5263,    5264,    5265,    5266,    5267,    5268,    5269,    5270,    5271,    5272,
    5273,    5274,    5275,    5276,    5277,    5278,    5279,    5280,    5281,    5282,
    5283,    5284,    5285,    5286,    5287,    5288,    5289,    5290,    5291,    5292,
    5293,    5294,    5295,    5296,    5297,    5298,    5299,    5300,    5301,    5302,
    5303,    5304,    5305,    5306,    5307,    5308,    5309,    5310,    5311,    5312,
    5313,    5314,    5315,    5316,    5317,    5318,    5319,    5320,    5321,    5322,
    5323,    5324,    5325,    5326,    5327,    5328,    5329,    5330,    5331,    5332,
    5333,    5334,    5335,    5336,    5337,    5338,    5339,    5340,    5341,    5342,
    5343,    5344,    5345,    5346,    5347,    5348,    5349,    5350,    5351,    5352,
** ... 27 like lines cut
*SURFACE, NAME=zmin
zmin_S2, S2
*ELSET, ELSET=zmax_S1
     108,     109,     110,     111,     112,     113,     114,     115,     116,     117,
     118,     119,     120,     121,     122,     123,     124,     125,     126,     127,
     128,     129,     130,     131,     132,     133,     134,     135,     136,     137,
     138,     139,     140,     141,     142,     143,     144,     145,     146,     147,
     148,     149,     150,     151,     152,     153,     154,     155,     156,     157,
     158,     159,     160,     161,     162,     163,     164,     165,     166,     167,
     168,     169,     170,     171,     172,     173,     174,     175,     176,     177,
     178,     179,     180,     181,     182,     183,     184,     185,     186,     187,
     188,     189,     190,     191,     192,     193,     194,     195,     196,     197,
     198,     199,     200,     201,     202,     203,     204,     205,     206,     207,
     208,     209,     210,     211,     212,     213,     214,     322,     323,     324,
     325,     326,     327,     328,     329,     330,     331,     332,     333,     334,
     335,     336,     337,     338,     339,     340,     341,     342,     343,     344,
     345,     346,     347,     348,     349,     350,     351,     352,     353,     354,
     355,     356,     357,     358,     359,     360,     361,     362,     363,     364,
     365,     366,     367,     368,     369,     370,     371,     372,     373,     374,
     375,     376,     377,     378,     379,     380,     381,     382,     383,     384,
     385,     386,     387,     388,     389,     390,     391,     392,     393,     394,
     395,     396,     397,     398,     399,     400,     401,     402,     403,     404,
     405,     406,     407,     408,     409,     410,     411,     412,     413,     414,
** ... 25 like lines cut
*ELSET, ELSET=zmax_S3
    9100,    9101,    9107,    9108,    9109,    9110,    9135,    9136
*ELSET, ELSET=zmax_S6
    9073,    9074,    9105,    9106,    9128,    9129,    9145,    9146,    9147,    9148
*SURFACE, NAME=zmax
zmax_S1, S1
zmax_S3, S3
zmax_S6, S6
*ELSET, ELSET=magma_boundary_S1
    9111,    9112,    9132,    9137,    9138,    9167,    9184,    9187,    9188,    9189,
    9206,    9207,    9223,    9224
*ELSET, ELSET=magma_boundary_S3
    9084,    9085,    9094,    9095,    9102,    9119,    9139,    9140,    9161,    9162,
    9174,    9175,    9190,    9191,    9208
*ELSET, ELSET=magma_boundary_S6
    9077,    9082,    9083,    9092,    9093,    9117,    9118,    9159,    9160,    9172,
    9173
*SURFACE, NAME=magma_boundary
magma_boundary_S1, S1
magma_boundary_S3, S3
magma_boundary_S6, S6
**
********************************** P R O P E R T I E S ************************
*SOLID SECTION, ELSET=EB17, MATERIAL=Default-Steel
*SOLID SECTION, ELSET=EB18, MATERIAL=Default-Steel
*SOLID SECTION, ELSET=EB19, MATERIAL=Default-Steel
*SOLID SECTION, ELSET=EB20, MATERIAL=Default-Steel
*SOLID SECTION, ELSET=EB21, MATERIAL=Default-Steel
*SOLID SECTION, ELSET=EB22, MATERIAL=Default-Steel
*SOLID SECTION, ELSET=EB23, MATERIAL=Default-Steel
*SOLID SECTION, ELSET=EB24, MATERIAL=Default-Steel
*SOLID SECTION, ELSET=EB25, MATERIAL=Default-Steel
*SOLID SECTION, ELSET=EB26, MATERIAL=Default-Steel
*SOLID SECTION, ELSET=EB27, MATERIAL=Default-Steel
*SOLID SECTION, ELSET=EB28, MATERIAL=Default-Steel
*SOLID SECTION, ELSET=EB3, MATERIAL=Default-Steel
*SOLID SECTION, ELSET=EB4, MATERIAL=Default-Steel
*SOLID SECTION, ELSET=EB5, MATERIAL=Default-Steel
*SOLID SECTION, ELSET=EB6, MATERIAL=Default-Steel
*SOLID SECTION, ELSET=EB7, MATERIAL=Default-Steel
*SOLID SECTION, ELSET=EB8, MATERIAL=Default-Steel
*SOLID SECTION, ELSET=EB9, MATERIAL=Default-Steel
*SOLID SECTION, ELSET=EB10, MATERIAL=Default-Steel
** ... 4 like lines cut
**
*END PART
**
**
**
********************************** E N D   P A R T S **********************************
**
**
********************************** A S S E M B L Y ************************************
**
*ASSEMBLY, NAME=ASSEMBLY1
**
*INSTANCE, NAME=Part-Default_1, PART=Part-Default
*END INSTANCE
**
*END ASSEMBLY
**
**
**
*MATERIAL, NAME = Default-Steel
*ELASTIC, TYPE=ISOTROPIC
2.068000e+05, 2.900000e-01
*DENSITY
7.000000e-06
*CONDUCTIVITY,TYPE=ISO
4.500000e-02
*SPECIFIC HEAT
5.000000e+02
**
**
************************************** H I S T O R Y *************************************
**
*PREPRINT
**
**************************************** S T E P 1 ***************************************
*STEP,INC=100,NAME=Default Set
**
*STATIC
1, 1, 1e-05, 1
**
**
**
**
*END STEP
